output/compact_ny_2025/generation_reconstruction/S4_2025_HIGH_NYC_LI_LOAD_PUBLIC/replay_audit_branch.csv
branch_row,device_key,from_bus,to_bus,online,rate_a_mva,from_mva,to_mva,from_overload_mva,to_overload_mva,angle_deg,angle_min_deg,angle_max_deg,angle_below_min_deg,angle_above_max_deg,violated,invalid_limit_bounds,stored_terminal_flow_error_mva,stored_terminal_flow_inconsistent
1,NPCC_S7:BRANCH_ROW:33,37,38,1,2500,54.2715782529741,42.5741253281852,0,0,-0.313529732718832,-360,360,0,0,0,0,1.93027143882405e-13,0
2,NPCC_S7:BRANCH_ROW:34,37,39,1,3388,1202.92130324244,1193.51761731039,0,0,4.26356158068471,-360,360,0,0,0,0,1.62774779974783e-12,0
3,NPCC_S7:BRANCH_ROW:35,37,40,1,2500,231.520770175205,230.138620868432,0,0,-3.4264439228859,-360,360,0,0,0,0,8.7889282531627e-14,0
4,NPCC_S7:BRANCH_ROW:36,37,43,0,3745.98196383403,0,0,0,0,-5.22798640795984,-360,360,0,0,0,0,0,0
5,NPCC_S7:BRANCH_ROW:37,38,69,1,1216,185.783552683488,194.029735756213,0,0,-4.28076053925962,-360,360,0,0,0,0,7.82637907279942e-13,0
6,NPCC_S7:BRANCH_ROW:38,39,73,1,2500,792.46586314539,785.786997857141,0,0,7.06944844308269,-360,360,0,0,0,0,4.58510012149571e-13,0
7,NPCC_S7:BRANCH_ROW:39,39,73,1,2500,792.46586314539,785.786997857141,0,0,7.06944844308269,-360,360,0,0,0,0,4.58510012149571e-13,0
8,NPCC_S7:BRANCH_ROW:40,40,44,0,1328.76341358641,0,0,0,0,-3.20625478892749,-360,360,0,0,0,0,0,0
9,NPCC_S7:BRANCH_ROW:41,41,42,1,2500,570.264868688839,575.800758771853,0,0,-2.51670664370387,-360,360,0,0,0,0,1.13686837721616e-13,0
10,NPCC_S7:BRANCH_ROW:42,41,45,1,314.254622579561,10.5219868522681,9.34195782366223,0,0,0.777382844845941,-360,360,0,0,0,0,2.3109712954397e-14,0
11,NPCC_S7:BRANCH_ROW:43,43,44,1,2500,321.338715094901,316.11401451988,0,0,-1.40471230385355,-360,360,0,0,0,0,5.6843418860808e-14,0
12,NPCC_S7:BRANCH_ROW:44,43,50,1,3463.47124449306,161.437521291926,165.126428909327,0,0,-2.06492707649469,-360,360,0,0,0,0,5.69543329542959e-14,0
13,NPCC_S7:BRANCH_ROW:45,43,50,1,3463.47124449306,161.437521291926,165.126428909327,0,0,-2.06492707649469,-360,360,0,0,0,0,5.69543329542959e-14,0
14,NPCC_S7:BRANCH_ROW:46,44,45,1,2500,270.544730034168,266.745733467924,0,0,2.61413751886179,-360,360,0,0,0,0,1.14571573537582e-13,0
15,NPCC_S7:BRANCH_ROW:47,44,48,0,6896.14528055676,0,0,0,0,-29.441048831813,-360,360,0,0,0,0,0,0
16,NPCC_S7:BRANCH_ROW:48,45,46,1,2040.85471944324,129.385326367623,134.549321914158,0,0,-25.6981800760531,-360,360,0,0,0,0,0,0
17,NPCC_S7:BRANCH_ROW:49,45,51,1,489.56239109923,22.7847261239144,23.3186966385381,0,0,-2.16346249007776,-360,360,0,0,0,0,0,0
18,NPCC_S7:BRANCH_ROW:50,45,71,1,166.495119914644,14.7595239639138,16.6582988432164,0,0,-4.11905224603693,-360,360,0,0,0,0,2.51214793389404e-15,0
19,NPCC_S7:BRANCH_ROW:51,46,47,1,2500,134.359462956076,141.053738170557,0,0,-9.0025024553099,-360,360,0,0,0,0,7.105427357601e-15,0
20,NPCC_S7:BRANCH_ROW:52,46,49,1,2500,10.4779163927411,8.91541971363129,0,0,-2.33166746968644,-360,360,0,0,0,0,2.44370150642894e-14,0
21,NPCC_S7:BRANCH_ROW:53,47,48,1,2500,169.284526575477,169.284547936469,0,0,2.64549618068814,-360,360,0,0,0,0,4.31757269778047e-13,0
22,NPCC_S7:BRANCH_ROW:54,50,51,1,2500,162.859960791259,159.570640480869,0,0,1.11088980142517,-360,360,0,0,0,0,3.17764371615651e-14,0
23,NPCC_S7:BRANCH_ROW:55,50,52,1,2858.06690137886,433.956084922739,429.454853058472,0,0,4.48998475605799,-360,360,0,0,0,0,1.4210854715202e-14,0
24,NPCC_S7:BRANCH_ROW:56,51,53,1,290.964700741948,78.1228103344578,69.3024267744071,0,0,8.4648372084757,-360,360,0,0,0,0,1.4210854715202e-14,0
25,NPCC_S7:BRANCH_ROW:57,51,72,1,2500,157.602470612605,162.416888009747,0,0,-1.85366813169338,-360,360,0,0,0,0,7.105427357601e-15,0
26,NPCC_S7:BRANCH_ROW:58,52,53,1,2500,276.582494369487,271.425789085473,0,0,5.08574225384288,-360,360,0,0,0,0,5.6843418860808e-14,0
27,NPCC_S7:BRANCH_ROW:59,53,55,1,997.983883346124,36.2879544135429,34.514404046481,0,0,-1.60163967023624,-360,360,0,0,0,0,3.5527136788005e-15,0
28,NPCC_S7:BRANCH_ROW:60,53,65,1,785.968397879188,6.09165638682668,10.3675856804753,0,0,0.0933677889568916,-360,360,0,0,0,0,1.94143694338652e-13,0
29,NPCC_S7:BRANCH_ROW:61,54,56,1,789.941803,46.8043354681364,48.3334381722307,0,0,-0.2163532791207,-360,360,0,0,0,0,7.22924857581284e-15,0
30,NPCC_S7:BRANCH_ROW:62,54,62,1,789.941803,28.8563682473902,29.0864760619685,0,0,0.92776516943666,-360,360,0,0,0,0,9.6419530013528e-14,0
31,NPCC_S7:BRANCH_ROW:65,55,57,1,789.941803,43.6051823142544,43.2873271317656,0,0,0.861179124350005,-360,360,0,0,0,0,9.34573054533836e-14,0
32,NPCC_S7:BRANCH_ROW:66,55,59,1,789.941803,18.524964276118,18.3934906238255,0,0,0.73474216095084,-360,360,0,0,0,0,3.5527136788005e-15,0
33,NPCC_S7:BRANCH_ROW:67,56,58,1,2500,217.993797508374,218.31231148422,0,0,1.52244624504192,-360,360,0,0,0,0,1.13908665908592e-13,0
34,NPCC_S7:BRANCH_ROW:68,57,59,1,2500,3.39322648439313,5.61058222467245,0,0,-0.126436963399165,-360,360,0,0,0,0,4.80791947866273e-14,0
35,NPCC_S7:BRANCH_ROW:69,58,60,1,2500,45.8206464644305,31.6858578857366,0,0,-0.495253557505271,-360,360,0,0,0,0,7.94410929039127e-15,0
36,NPCC_S7:BRANCH_ROW:70,58,62,1,2500,46.1212500735303,45.4296874006421,0,0,-0.378327796484556,-360,360,0,0,0,0,1.93451702870987e-13,0
37,NPCC_S7:BRANCH_ROW:71,59,61,1,2500,16.2105397323377,17.7225387735084,0,0,-1.24900931787457,-360,360,0,0,0,0,1.98513314232827e-13,0
38,NPCC_S7:BRANCH_ROW:73,62,63,1,620,16.6569506746151,23.7411143992941,0,0,-0.699522278359951,-360,360,0,0,0,0,2.48689957516035e-14,0
39,NPCC_S7:BRANCH_ROW:74,63,64,1,2500,72.2562356315655,71.6530984383184,0,0,1.55076210519705,-360,360,0,0,0,0,3.5527136788005e-15,0
40,NPCC_S7:BRANCH_ROW:75,63,67,1,2500,85.5816431516706,86.7524171697164,0,0,-3.86983962614624,-360,360,0,0,0,0,3.93710569368296e-13,0
41,NPCC_S7:BRANCH_ROW:76,64,65,1,2500,40.3251739015978,39.3612768524475,0,0,1.65224083745278,-360,360,0,0,0,0,1.95915329171644e-13,0
42,NPCC_S7:BRANCH_ROW:77,64,68,1,2500,52.1371211142057,57.7558717496026,0,0,-6.78438235234057,-360,360,0,0,0,0,7.94410929039127e-15,0
43,NPCC_S7:BRANCH_ROW:78,66,67,1,2500,31.7975955613402,31.6516236814727,0,0,-0.230134248462624,-360,360,0,0,0,0,7.7917093930542e-13,0
44,NPCC_S7:BRANCH_ROW:79,66,69,1,2500,26.1277947013841,13.430748314621,0,0,-0.127763266048237,-360,360,0,0,0,0,1.56579583105668e-12,0
45,NPCC_S7:BRANCH_ROW:81,67,68,1,2500,62.7643981769401,62.1296657113243,0,0,-1.36378062099728,-360,360,0,0,0,0,7.83661316686575e-13,0
46,NPCC_S7:BRANCH_ROW:82,67,70,1,2500,63.5528554268402,66.5201540474983,0,0,-1.93072257545364,-360,360,0,0,0,0,3.90426907932415e-13,0
47,NPCC_S7:BRANCH_ROW:84,68,71,1,2500,15.9025997479408,20.3257025995471,0,0,-2.07717156359841,-360,360,0,0,0,0,1.77635683940025e-15,0
48,NPCC_S7:BRANCH_ROW:85,69,71,1,2500,206.50208171212,202.675518964437,0,0,-3.54332316701008,-360,360,0,0,0,0,7.82113596973034e-13,0
49,NPCC_S7:BRANCH_ROW:86,70,71,1,2500,66.5201540474987,65.9732130481712,0,0,-1.51022960914204,-360,360,0,0,0,0,7.105427357601e-15,0
50,NPCC_S7:BRANCH_ROW:87,71,72,1,2500,22.6823305296758,13.0903059413975,0,0,0.10192162426579,-360,360,0,0,0,0,3.5527136788005e-15,0
51,NPCC_S7:BRANCH_ROW:88,73,74,0,1599.84337349398,0,0,0,0,5.13678844776234,-360,360,0,0,0,0,0,0
52,NPCC_S7:BRANCH_ROW:89,73,74,0,1599.84337349398,0,0,0,0,5.13678844776234,-360,360,0,0,0,0,0,0
53,NPCC_S7:BRANCH_ROW:90,74,77,1,2500,21.9442823631471,21.4563426734729,0,0,0.0444491034933456,-360,360,0,0,0,0,1.54462986143877e-12,0
54,NPCC_S7:BRANCH_ROW:91,74,78,1,2889.50495049505,662.940001793538,658.682295516383,0,0,1.45620607758666,-360,360,0,0,0,0,3.42670238531498e-12,0
55,NPCC_S7:BRANCH_ROW:92,74,78,1,2889.50495049505,662.940001793538,658.682295516383,0,0,1.45620607758666,-360,360,0,0,0,0,3.42670238531498e-12,0
56,NPCC_S7:BRANCH_ROW:94,76,77,0,4611.31325301205,0,0,0,0,0.251360438811716,-360,360,0,0,0,0,0,0
57,NPCC_S7:BRANCH_ROW:95,78,79,0,908.848753535103,0,0,0,0,1.79244053666569,-360,360,0,0,0,0,0,0
58,NPCC_S7:BRANCH_ROW:96,78,80,1,984.654731457801,75.220386899728,65.8823995642182,0,0,1.88399860114481,-360,360,0,0,0,0,1.05629771577174e-13,0
59,NPCC_S7:BRANCH_ROW:97,78,81,0,503.818330764024,0,0,0,0,-0.428035751991942,-360,360,0,0,0,0,0,0
60,NPCC_S7:BRANCH_ROW:98,78,82,1,451.473569126203,167.742397920195,167.541712044397,0,0,2.51542299608378,-360,360,0,0,0,0,1.84401326783599e-13,0
61,NPCC_S7:BRANCH_ROW:219,40,41,1,2500,190.951800479927,188.810234474532,0,0,-1.36950011491164,-360,360,0,0,0,0,3.17764371615651e-14,0
62,NPCC_S7:BRANCH_ROW:220,49,48,1,2500,54.9009472081077,55.61670750944,0,0,-4.02533880493532,-360,360,0,0,0,0,9.53293114846953e-14,0
63,NPCC_S7:BRANCH_ROW:222,54,52,1,4583.01611665388,155.722299218237,155.913924910266,0,0,-1.74786420907323,-360,360,0,0,0,0,1.1403325463067e-13,0
64,NPCC_S7:BRANCH_ROW:223,54,55,1,2500,285.223696236365,283.086779908451,0,0,1.73623837453341,-360,360,0,0,0,0,2.27817331817184e-13,0
65,NPCC_S7:BRANCH_ROW:224,56,57,1,2500,42.4511205861711,41.9491849703676,0,0,2.81377077800411,-360,360,0,0,0,0,1.43214466921978e-14,0
66,NPCC_S7:BRANCH_ROW:225,58,59,1,2500,266.04897271468,264.65439401343,0,0,1.16488756956303,-360,360,0,0,0,0,1.4210854715202e-14,0
67,NPCC_S7:BRANCH_ROW:226,60,61,1,2500,17.3652066396808,17.2621367703919,0,0,0.411131809193734,-360,360,0,0,0,0,3.88665090357472e-13,0
68,NPCC_S7:BRANCH_ROW:227,75,76,1,2500,22.2847965854438,22.2852413106361,0,0,-0.0804335438128589,-360,360,0,0,0,0,7.70648581219958e-13,0
69,NPCC_S7:BRANCH_ROW:234,38,39,1,1216,482.220531712999,481.213640660657,0,0,4.57709131340354,-360,360,0,0,0,0,6.27544409313646e-13,0
70,NPCC_S7:BRANCH_ROW:235,73,9002,0,2432,0,0,0,0,2.69856834235907,-360,360,0,0,0,0,0,0
71,NPCC_S7:BRANCH_ROW:236,9002,74,0,2432,0,0,0,0,2.43822010540327,-360,360,0,0,0,0,0,0
72,NPCC_S7:BRANCH_ROW:237,74,78,1,866.851485148515,199.085095693055,199.109213741936,0,0,1.45620607758666,-360,360,0,0,0,0,1.24344978758018e-14,0
73,NPCC_S7:BRANCH_ROW:238,77,78,1,650.138613861386,144.754116774774,144.773515893908,0,0,1.41175697409332,-360,360,0,0,0,0,7.105427357601e-15,0
74,NPCC_S7:BRANCH_ROW:239,78,81,0,1158.78216075726,0,0,0,0,-0.428035751991942,-360,360,0,0,0,0,0,0
75,NPCC_S7:BRANCH_ROW:240,78,79,0,1390.53859290871,0,0,0,0,1.79244053666569,-360,360,0,0,0,0,0,0
76,NPCC_S7:BRANCH_ROW:241,78,82,1,1390.53859290871,515.787075719594,515.169991533963,0,0,2.51542299608378,-360,360,0,0,0,0,5.32907051820075e-15,0
77,NPCC_S7:BRANCH_ROW:242,78,9003,1,2865.3452685422,72.7500527298221,72.7676543097595,0,0,-0.709149446702661,-360,360,0,0,0,0,1.4238583238574e-14,0
78,NPCC_S7:BRANCH_ROW:243,9003,80,1,5000,266.058602259659,265.496955707862,0,0,2.59314804784747,-360,360,0,0,0,0,7.105427357601e-15,0
79,NPCC_S7:BRANCH_ROW:244,81,80,1,2950,157.200484423227,157.499810090826,0,0,2.31203435313675,-360,360,0,0,0,0,4.09965302218088e-13,0
80,NPCC_S7:BRANCH_ROW:245,39,9001,1,5000,258.437409898868,257.988001693917,0,0,4.38689229084175,-360,360,0,0,0,0,1.14571573537582e-13,0
81,NPCC_S7:BRANCH_ROW:246,9001,73,0,5000,0,0,0,0,2.68255615224094,-360,360,0,0,0,0,0,0
82,PERFORM2019:AC:651:858:1,73,858,1,1216,446.165855888024,444.785816556083,0,0,1.1498618959129,-360,360,0,0,0,0,6.10299545947133e-12,0
83,PERFORM2019:AC:651:858:2,73,858,1,1216,446.165926373409,444.78575495749,0,0,1.1498618959129,-360,360,0,0,0,0,3.08280575371258e-12,0
84,PERFORM2019:AC:651:902:1,73,9002,1,1216,447.030841821965,443.988275465372,0,0,2.69856834235907,-360,360,0,0,0,0,6.07087979554246e-14,0
85,PERFORM2019:AC:651:902:2,73,9002,1,1216,447.030911851428,443.988226555662,0,0,2.69856834235907,-360,360,0,0,0,0,5.85928550210846e-14,0
86,PERFORM2019:AC:858:902:1,858,9002,1,1216,444.785847355663,443.08938296874,0,0,1.54870644644616,-360,360,0,0,0,0,6.2874681679592e-12,0
87,PERFORM2019:AC:858:902:2,858,9002,1,1216,444.785724158479,443.089481289293,0,0,1.54870644644616,-360,360,0,0,0,0,3.29165393086042e-12,0
88,PERFORM2019:AC:897:902:1,9002,74,1,1216,887.078226721662,886.569359517501,0,0,2.43822010540327,-360,360,0,0,0,0,1.14571573537582e-13,0
89,PERFORM2019:AC:897:902:2,9002,74,1,1216,887.077098919709,886.570804860569,0,0,2.43822010540327,-360,360,0,0,0,0,1.50668572420093e-12,0
90,PERFORM2019:AC:774:1519:1,76,774,1,1216,68.990021815839,65.7760064739728,0,0,0.0856971929396693,-360,360,0,0,0,0,6.16772889416356e-12,0
91,PERFORM2019:AC:774:900:1,774,77,1,1725,65.7760064739644,62.2373609434974,0,0,0.165663245872047,-360,360,0,0,0,0,3.07705205876885e-12,0
92,PERFORM2019:AC:900:1519:1,76,77,1,1725,68.4898122468827,61.6688736446893,0,0,0.251360438811716,-360,360,0,0,0,0,7.69064046580079e-13,0
93,NY2025:CEEC:351,43,9101,1,2000,255.271900202065,249.05675240006,0,0,3.16302744343786,-360,360,0,0,0,0,1.13686837721616e-13,0
94,NY2025:CEEC:352,43,9101,1,2000,255.271900202065,249.05675240006,0,0,3.16302744343786,-360,360,0,0,0,0,1.13686837721616e-13,0
95,NY2025:CEEC:361,9101,37,1,2000,421.244099121133,420.610360669207,0,0,2.06495896452198,-360,360,0,0,0,0,5.72586694388291e-14,0
96,NY2025:CEEC:362,9101,37,1,2000,421.244099121133,420.610360669207,0,0,2.06495896452198,-360,360,0,0,0,0,5.72586694388291e-14,0
97,NY2025:CEEC:14,43,9102,1,2000,215.328749495635,208.793218933413,0,0,2.83561846119817,-360,360,0,0,0,0,2.92964275105423e-14,0
98,NY2025:CEEC:371,9101,9102,1,2000,346.651742429081,347.175673569095,0,0,-0.327408982239697,-360,360,0,0,0,0,7.42372656453027e-13,0
99,NY2025:CEEC:LEGACY230:1,40,9103,1,1328.76341358641,59.3954532796299,52.3209767481562,0,0,-0.635704994321237,-360,360,0,0,0,0,7.1607233460989e-15,0
100,NY2025:CEEC:LEGACY230:2,9103,44,1,1328.76341358641,195.980551909947,201.313810049037,0,0,-2.57054979460625,-360,360,0,0,0,0,7.105427357601e-15,0
101,NY2025:CEEC:GORDON_XFMR,9102,9103,1,1200,149.850483597382,148.210575308172,0,0,-1.66978097044546,-360,360,0,0,0,0,7.105427357601e-15,0
102,NY2025:NYES:1,9001,9104,1,1800,257.988001693918,256.941679947241,0,0,1.09541609086295,-360,360,0,0,0,0,9.32587340685131e-15,0
103,NY2025:NYES:2,9104,73,1,1800,256.941679947239,258.678007626419,0,0,1.58714006137799,-360,360,0,0,0,0,3.5527136788005e-15,0
104,NY2025:SMART_PATH:1,1220,48,1,575,336.829573103488,346.900296839476,0,0,-18.4430898203748,-360,360,0,0,0,0,1.13908665908592e-13,0
105,NY2025:SMART_PATH:2,1220,48,1,575,336.73264605526,346.803620293413,0,0,-18.4430898203748,-360,360,0,0,0,0,5.85928550210846e-14,0
106,NY2025:SMART_PATH:3,1220,44,1,453,336.78110957742,334.872477682464,0,0,10.9979590114383,-360,360,0,0,0,0,1.4210854715202e-14,0
107,NY2025:SMART_PATH:4,1220,44,1,453,336.78110957742,334.872477682464,0,0,10.9979590114383,-360,360,0,0,0,0,1.4210854715202e-14,0
108,NY2025:NYC:DELIVERY:95:1,78,1130,1,908.848753535103,228.676473990477,228.535600811405,0,0,0.851054966906439,-360,360,0,0,0,0,1.55605367466223e-12,0
109,NY2025:NYC:DELIVERY:95:2,1130,79,1,908.848753535103,252.592895145569,252.439253174569,0,0,0.941385569759255,-360,360,0,0,0,0,2.81175250674938e-12,0
110,NY2025:NYC:DELIVERY:240:1,78,557,1,1390.53859290871,350.614804435939,350.407320154838,0,0,0.854275538844021,-360,360,0,0,0,0,1.56720988619847e-12,0
111,NY2025:NYC:DELIVERY:240:2,557,79,1,1390.53859290871,384.564915971458,384.32166974615,0,0,0.938164997821673,-360,360,0,0,0,0,5.51190474924464e-12,0
112,NY2025:NYC:DELIVERY:97:1,78,1129,1,503.818330764024,31.0987173344191,31.0451382053367,0,0,-0.184254261905433,-360,360,0,0,0,0,3.5527136788005e-15,0
113,NY2025:NYC:DELIVERY:97:2,1129,81,1,503.818330764024,40.1033088047814,40.0212118405039,0,0,-0.243781490086509,-360,360,0,0,0,0,7.69226096663508e-13,0
114,NY2025:NYC:DELIVERY:239:1,78,1129,1,1158.78216075726,71.4103628668661,71.2873319068199,0,0,-0.184254261905433,-360,360,0,0,0,0,7.105427357601e-15,0
115,NY2025:NYC:DELIVERY:239:2,1129,81,1,1158.78216075726,92.0871366852727,91.8986217074269,0,0,-0.243781490086509,-360,360,0,0,0,0,1.5354465188442e-12,0
116,NY2025:NYC:RAINEY_XFMR,1130,1529,1,1500,24.2071717516634,24.2320010822878,0,0,-0.378690337980505,-360,360,0,0,0,0,3.84498172330714e-13,0
117,NY2025:NYC:ASTORIA_XFMR,557,1493,1,1500,34.5745695338904,34.6157837389765,0,0,-0.415452257976181,-360,360,0,0,0,0,3.92554766458762e-13,0
118,NY2025:NYC:CORONA_BASELINE,1493,601,1,2248,34.6157837389699,35.5315476028947,0,0,-0.0169146768646478,-360,360,0,0,0,0,1.23394447246774e-11,0
119,NY2025:RCC_QUEENS:CABLE,1529,601,1,300,24.2320010822861,24.0117704329451,0,0,-0.0504560249227417,-360,360,0,0,0,0,3.5527136788005e-15,0
120,NY2025:RCC_BROOKLYN:PAR,1129,9112,1,300,30.2057231517661,30.2749959090378,0,0,0.423108157344313,-360,360,0,0,0,0,3.86136014862656e-13,0
121,NY2025:RCC_BROOKLYN:CABLE,9112,9111,1,300,30.2749959090639,30.0460034211852,0,0,0.0107526581598485,-360,360,0,0,0,0,1.23425593855693e-11,0
122,NY2025:RCC_STATEN:PAR,81,9113,1,300,34.4589017962888,34.5900240037871,0,0,0.458001556095084,-360,360,0,0,0,0,5.7843808638787e-13,0
123,NY2025:RCC_STATEN:CABLE,9113,9114,1,300,34.5900240037896,32.0833132327305,0,0,0.107393176546324,-360,360,0,0,0,0,1.54317875792363e-12,0
124,NY2025:NYC:GREENWOOD_CORONA,9111,601,1,600,60.1994995987336,59.1145818754083,0,0,0.172302050404465,-360,360,0,0,0,0,1.53814040200885e-12,0
125,NY2025:NYC:FOX_GREENWOOD,9114,9111,1,600,32.0833132327269,30.4498304705745,0,0,0.112247572949261,-360,360,0,0,0,0,1.54545597243586e-12,0
